<configuration>
  <input>
    <net-file value="controlled-intersection.net.xml"/>
    <route-files value="controlled-intersection.rou.xml"/>
    <additional-files value="controlled-intersection.add.xml"/>
  </input>
  <time>
    <begin value="0"/>
    <end value="100"/>
  </time>
  <report>
    <verbose value="true"/>
    <no-step-log value="true"/>
  </report>
</configuration>