<?xml version="1.0" encoding="UTF-8"?>

<!-- generated on Thu Feb 20 16:39:42 2020 by Eclipse SUMO netconvert Version 1.4.0
<configuration xmlns:xsi="http://www.w3.org/2001/XMLSchema-instance" xsi:noNamespaceSchemaLocation="http://sumo.dlr.de/xsd/netconvertConfiguration.xsd">

    <input>
        <node-files value="controlled-intersection.nod.xml"/>
        <edge-files value="controlled-intersection.edg.xml"/>
        <connection-files value="controlled-intersection.con.xml"/>
    </input>

    <output>
        <output-file value="controlled-intersection.net.xml"/>
    </output>

    <report>
        <verbose value="true"/>
        <aggregate-warnings value="5"/>
    </report>

</configuration>
-->

<net version="1.3" junctionCornerDetail="5" limitTurnSpeed="5.50" xmlns:xsi="http://www.w3.org/2001/XMLSchema-instance" xsi:noNamespaceSchemaLocation="http://sumo.dlr.de/xsd/net_file.xsd">

    <location netOffset="500.00,410.00" convBoundary="0.00,0.00,1000.00,820.00" origBoundary="-500.00,-410.00,500.00,410.00" projParameter="!"/>

    <edge id=":0_0" function="internal">
        <lane id=":0_0_0" index="0" speed="60.00" length="27.20" shape="492.00,423.60 492.00,396.40"/>
        <lane id=":0_0_1" index="1" speed="60.00" length="27.20" shape="495.20,423.60 495.20,396.40"/>
        <lane id=":0_0_2" index="2" speed="60.00" length="27.20" shape="498.40,423.60 498.40,396.40"/>
    </edge>
    <edge id=":0_3" function="internal">
        <lane id=":0_3_0" index="0" speed="60.00" length="27.20" shape="513.60,418.00 486.40,418.00"/>
        <lane id=":0_3_1" index="1" speed="60.00" length="27.20" shape="513.60,414.80 486.40,414.80"/>
        <lane id=":0_3_2" index="2" speed="60.00" length="27.20" shape="513.60,411.60 486.40,411.60"/>
    </edge>
    <edge id=":0_6" function="internal">
        <lane id=":0_6_0" index="0" speed="60.00" length="27.20" shape="508.00,396.40 508.00,423.60"/>
        <lane id=":0_6_1" index="1" speed="60.00" length="27.20" shape="504.80,396.40 504.80,423.60"/>
        <lane id=":0_6_2" index="2" speed="60.00" length="27.20" shape="501.60,396.40 501.60,423.60"/>
    </edge>
    <edge id=":0_9" function="internal">
        <lane id=":0_9_0" index="0" speed="60.00" length="27.28" shape="486.40,402.00 513.60,402.00"/>
        <lane id=":0_9_1" index="1" speed="60.00" length="27.28" shape="486.40,405.20 513.60,405.20"/>
        <lane id=":0_9_2" index="2" speed="60.00" length="27.28" shape="486.40,405.20 494.50,405.70 500.00,406.80 505.50,407.90 513.60,408.40"/>
    </edge>
    <edge id=":0_12" function="internal">
        <lane id=":0_12_0" index="0" speed="10.88" length="9.57" shape="486.40,408.40 494.45,409.35 495.76,410.00"/>
    </edge>
    <edge id=":0_13" function="internal">
        <lane id=":0_13_0" index="0" speed="10.36" length="7.98" shape="486.40,408.40 493.05,409.35 494.13,410.00"/>
    </edge>
    <edge id=":0_14" function="internal">
        <lane id=":0_14_0" index="0" speed="3.65" length="2.34" shape="486.40,408.40 487.60,409.20 488.00,410.00"/>
    </edge>
    <edge id=":0_15" function="internal">
        <lane id=":0_15_0" index="0" speed="10.88" length="17.57" shape="495.76,410.00 500.20,412.20 503.65,416.95 504.80,423.60"/>
    </edge>
    <edge id=":0_16" function="internal">
        <lane id=":0_16_0" index="0" speed="10.36" length="16.53" shape="494.13,410.00 497.80,412.20 500.65,416.95 501.60,423.60"/>
    </edge>
    <edge id=":0_17" function="internal">
        <lane id=":0_17_0" index="0" speed="3.65" length="2.34" shape="488.00,410.00 487.60,410.80 486.40,411.60"/>
    </edge>
    <edge id=":1_0" function="internal">
        <lane id=":1_0_0" index="0" speed="5.91" length="16.00" shape="0.00,418.00 0.00,402.00"/>
    </edge>
    <edge id=":1_1" function="internal">
        <lane id=":1_1_0" index="0" speed="4.77" length="9.60" shape="0.00,414.80 0.00,405.20"/>
    </edge>
    <edge id=":1_2" function="internal">
        <lane id=":1_2_0" index="0" speed="3.24" length="3.20" shape="0.00,411.60 0.00,408.40"/>
    </edge>
    <edge id=":1_3" function="internal">
        <lane id=":1_3_0" index="0" speed="5.91" length="16.00" shape="0.00,418.00 0.00,402.00"/>
    </edge>
    <edge id=":1_4" function="internal">
        <lane id=":1_4_0" index="0" speed="4.77" length="9.60" shape="0.00,414.80 0.00,405.20"/>
    </edge>
    <edge id=":1_5" function="internal">
        <lane id=":1_5_0" index="0" speed="3.24" length="3.20" shape="0.00,411.60 0.00,408.40"/>
    </edge>
    <edge id=":2_0" function="internal">
        <lane id=":2_0_0" index="0" speed="5.91" length="16.00" shape="1000.00,402.00 1000.00,418.00"/>
    </edge>
    <edge id=":2_1" function="internal">
        <lane id=":2_1_0" index="0" speed="4.77" length="9.60" shape="1000.00,405.20 1000.00,414.80"/>
    </edge>
    <edge id=":2_2" function="internal">
        <lane id=":2_2_0" index="0" speed="3.24" length="3.20" shape="1000.00,408.40 1000.00,411.60"/>
    </edge>
    <edge id=":2_3" function="internal">
        <lane id=":2_3_0" index="0" speed="5.91" length="16.00" shape="1000.00,402.00 1000.00,418.00"/>
    </edge>
    <edge id=":2_4" function="internal">
        <lane id=":2_4_0" index="0" speed="4.77" length="9.60" shape="1000.00,405.20 1000.00,414.80"/>
    </edge>
    <edge id=":2_5" function="internal">
        <lane id=":2_5_0" index="0" speed="3.24" length="3.20" shape="1000.00,408.40 1000.00,411.60"/>
    </edge>
    <edge id=":3_0" function="internal">
        <lane id=":3_0_0" index="0" speed="60.00" length="0.10" shape="492.00,10.00 492.00,10.00"/>
        <lane id=":3_0_1" index="1" speed="60.00" length="0.10" shape="495.20,10.00 495.20,10.00"/>
        <lane id=":3_0_2" index="2" speed="60.00" length="0.10" shape="498.40,10.00 498.40,10.00"/>
    </edge>
    <edge id=":3_3" function="internal">
        <lane id=":3_3_0" index="0" speed="60.00" length="0.10" shape="508.00,10.00 508.00,10.00"/>
        <lane id=":3_3_1" index="1" speed="60.00" length="0.10" shape="504.80,10.00 504.80,10.00"/>
        <lane id=":3_3_2" index="2" speed="60.00" length="0.10" shape="501.60,10.00 501.60,10.00"/>
    </edge>
    <edge id=":4_0" function="internal">
        <lane id=":4_0_0" index="0" speed="60.00" length="0.10" shape="492.00,810.00 492.00,810.00"/>
        <lane id=":4_0_1" index="1" speed="60.00" length="0.10" shape="495.20,810.00 495.20,810.00"/>
        <lane id=":4_0_2" index="2" speed="60.00" length="0.10" shape="498.40,810.00 498.40,810.00"/>
    </edge>
    <edge id=":4_3" function="internal">
        <lane id=":4_3_0" index="0" speed="60.00" length="0.10" shape="508.00,810.00 508.00,810.00"/>
        <lane id=":4_3_1" index="1" speed="60.00" length="0.10" shape="504.80,810.00 504.80,810.00"/>
        <lane id=":4_3_2" index="2" speed="60.00" length="0.10" shape="501.60,810.00 501.60,810.00"/>
    </edge>
    <edge id=":51_0" function="internal">
        <lane id=":51_0_0" index="0" speed="3.65" length="4.67" shape="90.00,408.40 91.20,409.20 91.60,410.00 91.20,410.80 90.00,411.60"/>
    </edge>
    <edge id=":52_0" function="internal">
        <lane id=":52_0_0" index="0" speed="3.65" length="4.67" shape="910.00,411.60 908.80,410.80 908.40,410.00 908.80,409.20 910.00,408.40"/>
    </edge>
    <edge id=":53_0" function="internal">
        <lane id=":53_0_0" index="0" speed="3.65" length="4.67" shape="498.40,0.00 499.20,-1.20 500.00,-1.60 500.80,-1.20 501.60,0.00"/>
    </edge>
    <edge id=":54_0" function="internal">
        <lane id=":54_0_0" index="0" speed="3.65" length="4.67" shape="501.60,820.00 500.80,821.20 500.00,821.60 499.20,821.20 498.40,820.00"/>
    </edge>

    <edge id="1i" from="1" to="0" priority="78">
        <lane id="1i_0" index="0" speed="60.00" length="486.40" shape="0.00,402.00 486.40,402.00"/>
        <lane id="1i_1" index="1" speed="60.00" length="486.40" shape="0.00,405.20 486.40,405.20"/>
        <lane id="1i_2" index="2" speed="60.00" length="486.40" shape="0.00,408.40 486.40,408.40"/>
    </edge>
    <edge id="1o" from="0" to="1" priority="46">
        <lane id="1o_0" index="0" speed="60.00" length="486.40" shape="486.40,418.00 0.00,418.00"/>
        <lane id="1o_1" index="1" speed="60.00" length="486.40" shape="486.40,414.80 0.00,414.80"/>
        <lane id="1o_2" index="2" speed="60.00" length="486.40" shape="486.40,411.60 0.00,411.60"/>
    </edge>
    <edge id="2i" from="2" to="0" priority="78">
        <lane id="2i_0" index="0" speed="60.00" length="486.40" shape="1000.00,418.00 513.60,418.00"/>
        <lane id="2i_1" index="1" speed="60.00" length="486.40" shape="1000.00,414.80 513.60,414.80"/>
        <lane id="2i_2" index="2" speed="60.00" length="486.40" shape="1000.00,411.60 513.60,411.60"/>
    </edge>
    <edge id="2o" from="0" to="2" priority="46">
        <lane id="2o_0" index="0" speed="60.00" length="486.40" shape="513.60,402.00 1000.00,402.00"/>
        <lane id="2o_1" index="1" speed="60.00" length="486.40" shape="513.60,405.20 1000.00,405.20"/>
        <lane id="2o_2" index="2" speed="60.00" length="486.40" shape="513.60,408.40 1000.00,408.40"/>
    </edge>
    <edge id="3i" from="3" to="0" priority="78">
        <lane id="3i_0" index="0" speed="60.00" length="386.40" shape="508.00,10.00 508.00,396.40"/>
        <lane id="3i_1" index="1" speed="60.00" length="386.40" shape="504.80,10.00 504.80,396.40"/>
        <lane id="3i_2" index="2" speed="60.00" length="386.40" shape="501.60,10.00 501.60,396.40"/>
    </edge>
    <edge id="3o" from="0" to="3" priority="46">
        <lane id="3o_0" index="0" speed="60.00" length="386.40" shape="492.00,396.40 492.00,10.00"/>
        <lane id="3o_1" index="1" speed="60.00" length="386.40" shape="495.20,396.40 495.20,10.00"/>
        <lane id="3o_2" index="2" speed="60.00" length="386.40" shape="498.40,396.40 498.40,10.00"/>
    </edge>
    <edge id="4i" from="4" to="0" priority="78">
        <lane id="4i_0" index="0" speed="60.00" length="386.40" shape="492.00,810.00 492.00,423.60"/>
        <lane id="4i_1" index="1" speed="60.00" length="386.40" shape="495.20,810.00 495.20,423.60"/>
        <lane id="4i_2" index="2" speed="60.00" length="386.40" shape="498.40,810.00 498.40,423.60"/>
    </edge>
    <edge id="4o" from="0" to="4" priority="46">
        <lane id="4o_0" index="0" speed="60.00" length="386.40" shape="508.00,423.60 508.00,810.00"/>
        <lane id="4o_1" index="1" speed="60.00" length="386.40" shape="504.80,423.60 504.80,810.00"/>
        <lane id="4o_2" index="2" speed="60.00" length="386.40" shape="501.60,423.60 501.60,810.00"/>
    </edge>
    <edge id="51i" from="1" to="51" priority="78">
        <lane id="51i_0" index="0" speed="60.00" length="90.00" shape="0.00,402.00 90.00,402.00"/>
        <lane id="51i_1" index="1" speed="60.00" length="90.00" shape="0.00,405.20 90.00,405.20"/>
        <lane id="51i_2" index="2" speed="60.00" length="90.00" shape="0.00,408.40 90.00,408.40"/>
    </edge>
    <edge id="51o" from="51" to="1" priority="46">
        <lane id="51o_0" index="0" speed="60.00" length="90.00" shape="90.00,418.00 0.00,418.00"/>
        <lane id="51o_1" index="1" speed="60.00" length="90.00" shape="90.00,414.80 0.00,414.80"/>
        <lane id="51o_2" index="2" speed="60.00" length="90.00" shape="90.00,411.60 0.00,411.60"/>
    </edge>
    <edge id="52i" from="2" to="52" priority="78">
        <lane id="52i_0" index="0" speed="60.00" length="90.00" shape="1000.00,418.00 910.00,418.00"/>
        <lane id="52i_1" index="1" speed="60.00" length="90.00" shape="1000.00,414.80 910.00,414.80"/>
        <lane id="52i_2" index="2" speed="60.00" length="90.00" shape="1000.00,411.60 910.00,411.60"/>
    </edge>
    <edge id="52o" from="52" to="2" priority="46">
        <lane id="52o_0" index="0" speed="60.00" length="90.00" shape="910.00,402.00 1000.00,402.00"/>
        <lane id="52o_1" index="1" speed="60.00" length="90.00" shape="910.00,405.20 1000.00,405.20"/>
        <lane id="52o_2" index="2" speed="60.00" length="90.00" shape="910.00,408.40 1000.00,408.40"/>
    </edge>
    <edge id="53i" from="3" to="53" priority="78">
        <lane id="53i_0" index="0" speed="60.00" length="10.00" shape="492.00,10.00 492.00,0.00"/>
        <lane id="53i_1" index="1" speed="60.00" length="10.00" shape="495.20,10.00 495.20,0.00"/>
        <lane id="53i_2" index="2" speed="60.00" length="10.00" shape="498.40,10.00 498.40,0.00"/>
    </edge>
    <edge id="53o" from="53" to="3" priority="46">
        <lane id="53o_0" index="0" speed="60.00" length="10.00" shape="508.00,0.00 508.00,10.00"/>
        <lane id="53o_1" index="1" speed="60.00" length="10.00" shape="504.80,0.00 504.80,10.00"/>
        <lane id="53o_2" index="2" speed="60.00" length="10.00" shape="501.60,0.00 501.60,10.00"/>
    </edge>
    <edge id="54i" from="4" to="54" priority="78">
        <lane id="54i_0" index="0" speed="60.00" length="10.00" shape="508.00,810.00 508.00,820.00"/>
        <lane id="54i_1" index="1" speed="60.00" length="10.00" shape="504.80,810.00 504.80,820.00"/>
        <lane id="54i_2" index="2" speed="60.00" length="10.00" shape="501.60,810.00 501.60,820.00"/>
    </edge>
    <edge id="54o" from="54" to="4" priority="46">
        <lane id="54o_0" index="0" speed="60.00" length="10.00" shape="492.00,820.00 492.00,810.00"/>
        <lane id="54o_1" index="1" speed="60.00" length="10.00" shape="495.20,820.00 495.20,810.00"/>
        <lane id="54o_2" index="2" speed="60.00" length="10.00" shape="498.40,820.00 498.40,810.00"/>
    </edge>

    <tlLogic id="0" type="static" programID="0" offset="0">
        <phase duration="25" state="GGGrrrGGGrrrrrG"/>
        <phase duration="11" state="yyyrrryyyrrrrry"/>
        <phase duration="26" state="rrrGGGrrrGGGrrr"/>
        <phase duration="11" state="rrryyyrrryyyrrr"/>
        <phase duration="6"  state="rrrrrrrrrGGGGGG"/>
        <phase duration="11" state="rrrrrrrrryyyyyy"/>
    </tlLogic>

    <junction id="0" type="traffic_light" x="500.00" y="410.00" incLanes="4i_0 4i_1 4i_2 2i_0 2i_1 2i_2 3i_0 3i_1 3i_2 1i_0 1i_1 1i_2" intLanes=":0_0_0 :0_0_1 :0_0_2 :0_3_0 :0_3_1 :0_3_2 :0_6_0 :0_6_1 :0_6_2 :0_9_0 :0_9_1 :0_9_2 :0_15_0 :0_16_0 :0_17_0" shape="490.40,423.60 509.60,423.60 510.04,421.38 510.60,420.60 511.38,420.04 512.38,419.71 513.60,419.60 513.60,400.40 511.38,399.96 510.60,399.40 510.04,398.62 509.71,397.62 509.60,396.40 490.40,396.40 489.96,398.62 489.40,399.40 488.62,399.96 487.62,400.29 486.40,400.40 486.40,419.60 488.62,420.04 489.40,420.60 489.96,421.38 490.29,422.38">
        <request index="0"  response="011000000000000" foes="011111000111000" cont="0"/>
        <request index="1"  response="011000000000000" foes="011111000111000" cont="0"/>
        <request index="2"  response="011000000000000" foes="011111000111000" cont="0"/>
        <request index="3"  response="000000111000111" foes="111000111000111" cont="0"/>
        <request index="4"  response="000000111000111" foes="111000111000111" cont="0"/>
        <request index="5"  response="000000111000111" foes="111000111000111" cont="0"/>
        <request index="6"  response="011000000000000" foes="011111000111000" cont="0"/>
        <request index="7"  response="011000000000000" foes="011111000111000" cont="0"/>
        <request index="8"  response="011000000000000" foes="011111000111000" cont="0"/>
        <request index="9"  response="000000111000111" foes="000000111000111" cont="0"/>
        <request index="10" response="000000111000111" foes="000000111000111" cont="0"/>
        <request index="11" response="000000111000111" foes="000000111000111" cont="0"/>
        <request index="12" response="000000111111111" foes="000000111111111" cont="1"/>
        <request index="13" response="000000111111111" foes="000000111111111" cont="1"/>
        <request index="14" response="000000000111000" foes="000000000111000" cont="1"/>
    </junction>
    <junction id="1" type="priority" x="0.00" y="410.00" incLanes="1o_0 1o_1 1o_2 51o_0 51o_1 51o_2" intLanes=":1_0_0 :1_1_0 :1_2_0 :1_3_0 :1_4_0 :1_5_0" shape="0.00,419.60 0.00,410.00 0.00,400.40">
        <request index="0" response="000000" foes="000000" cont="0"/>
        <request index="1" response="000000" foes="000000" cont="0"/>
        <request index="2" response="000000" foes="000000" cont="0"/>
        <request index="3" response="000000" foes="000000" cont="0"/>
        <request index="4" response="000000" foes="000000" cont="0"/>
        <request index="5" response="000000" foes="000000" cont="0"/>
    </junction>
    <junction id="2" type="priority" x="1000.00" y="410.00" incLanes="2o_0 2o_1 2o_2 52o_0 52o_1 52o_2" intLanes=":2_0_0 :2_1_0 :2_2_0 :2_3_0 :2_4_0 :2_5_0" shape="1000.00,400.40 1000.00,410.00 1000.00,419.60">
        <request index="0" response="000000" foes="000000" cont="0"/>
        <request index="1" response="000000" foes="000000" cont="0"/>
        <request index="2" response="000000" foes="000000" cont="0"/>
        <request index="3" response="000000" foes="000000" cont="0"/>
        <request index="4" response="000000" foes="000000" cont="0"/>
        <request index="5" response="000000" foes="000000" cont="0"/>
    </junction>
    <junction id="3" type="priority" x="500.00" y="10.00" incLanes="3o_0 3o_1 3o_2 53o_0 53o_1 53o_2" intLanes=":3_0_0 :3_0_1 :3_0_2 :3_3_0 :3_3_1 :3_3_2" shape="490.40,10.00 509.60,10.00 490.40,10.00">
        <request index="0" response="000000" foes="000000" cont="0"/>
        <request index="1" response="000000" foes="000000" cont="0"/>
        <request index="2" response="000000" foes="000000" cont="0"/>
        <request index="3" response="000000" foes="000000" cont="0"/>
        <request index="4" response="000000" foes="000000" cont="0"/>
        <request index="5" response="000000" foes="000000" cont="0"/>
    </junction>
    <junction id="4" type="priority" x="500.00" y="810.00" incLanes="54o_0 54o_1 54o_2 4o_0 4o_1 4o_2" intLanes=":4_0_0 :4_0_1 :4_0_2 :4_3_0 :4_3_1 :4_3_2" shape="490.40,810.00 509.60,810.00 490.40,810.00">
        <request index="0" response="000000" foes="000000" cont="0"/>
        <request index="1" response="000000" foes="000000" cont="0"/>
        <request index="2" response="000000" foes="000000" cont="0"/>
        <request index="3" response="000000" foes="000000" cont="0"/>
        <request index="4" response="000000" foes="000000" cont="0"/>
        <request index="5" response="000000" foes="000000" cont="0"/>
    </junction>
    <junction id="51" type="priority" x="90.00" y="410.00" incLanes="51i_0 51i_1 51i_2" intLanes=":51_0_0" shape="90.00,410.00 90.00,400.40 90.00,410.00">
        <request index="0" response="0" foes="0" cont="0"/>
    </junction>
    <junction id="52" type="priority" x="910.00" y="410.00" incLanes="52i_0 52i_1 52i_2" intLanes=":52_0_0" shape="910.00,410.00 910.00,419.60 910.00,410.00">
        <request index="0" response="0" foes="0" cont="0"/>
    </junction>
    <junction id="53" type="priority" x="500.00" y="0.00" incLanes="53i_0 53i_1 53i_2" intLanes=":53_0_0" shape="500.00,0.00 490.40,0.00 500.00,0.00">
        <request index="0" response="0" foes="0" cont="0"/>
    </junction>
    <junction id="54" type="priority" x="500.00" y="820.00" incLanes="54i_0 54i_1 54i_2" intLanes=":54_0_0" shape="500.00,820.00 509.60,820.00 500.00,820.00">
        <request index="0" response="0" foes="0" cont="0"/>
    </junction>

    <junction id=":0_15_0" type="internal" x="495.76" y="410.00" incLanes=":0_12_0 2i_0 2i_1 2i_2" intLanes=":0_0_0 :0_0_1 :0_0_2 :0_3_0 :0_3_1 :0_3_2 :0_6_0 :0_6_1 :0_6_2"/>
    <junction id=":0_16_0" type="internal" x="494.13" y="410.00" incLanes=":0_13_0 2i_0 2i_1 2i_2" intLanes=":0_0_0 :0_0_1 :0_0_2 :0_3_0 :0_3_1 :0_3_2 :0_6_0 :0_6_1 :0_6_2"/>
    <junction id=":0_17_0" type="internal" x="488.00" y="410.00" incLanes=":0_14_0 2i_0 2i_1 2i_2" intLanes=":0_3_0 :0_3_1 :0_3_2"/>

    <connection from="1i" to="2o" fromLane="0" toLane="0" via=":0_9_0" tl="0" linkIndex="9" dir="s" state="o"/>
    <connection from="1i" to="2o" fromLane="1" toLane="1" via=":0_9_1" tl="0" linkIndex="10" dir="s" state="o"/>
    <connection from="1i" to="2o" fromLane="1" toLane="2" via=":0_9_2" tl="0" linkIndex="11" dir="s" state="o"/>
    <connection from="1i" to="4o" fromLane="2" toLane="1" via=":0_12_0" tl="0" linkIndex="12" dir="l" state="o"/>
    <connection from="1i" to="4o" fromLane="2" toLane="2" via=":0_13_0" tl="0" linkIndex="13" dir="l" state="o"/>
    <connection from="1i" to="1o" fromLane="2" toLane="2" via=":0_14_0" tl="0" linkIndex="14" dir="t" state="o"/>
    <connection from="1o" to="51i" fromLane="0" toLane="0" via=":1_0_0" dir="l" state="M"/>
    <connection from="1o" to="51i" fromLane="1" toLane="1" via=":1_1_0" dir="l" state="M"/>
    <connection from="1o" to="51i" fromLane="2" toLane="2" via=":1_2_0" dir="l" state="M"/>
    <connection from="2i" to="1o" fromLane="0" toLane="0" via=":0_3_0" tl="0" linkIndex="3" dir="s" state="o"/>
    <connection from="2i" to="1o" fromLane="1" toLane="1" via=":0_3_1" tl="0" linkIndex="4" dir="s" state="o"/>
    <connection from="2i" to="1o" fromLane="2" toLane="2" via=":0_3_2" tl="0" linkIndex="5" dir="s" state="o"/>
    <connection from="2o" to="52i" fromLane="0" toLane="0" via=":2_0_0" dir="l" state="M"/>
    <connection from="2o" to="52i" fromLane="1" toLane="1" via=":2_1_0" dir="l" state="M"/>
    <connection from="2o" to="52i" fromLane="2" toLane="2" via=":2_2_0" dir="l" state="M"/>
    <connection from="3i" to="4o" fromLane="0" toLane="0" via=":0_6_0" tl="0" linkIndex="6" dir="s" state="O"/>
    <connection from="3i" to="4o" fromLane="1" toLane="1" via=":0_6_1" tl="0" linkIndex="7" dir="s" state="O"/>
    <connection from="3i" to="4o" fromLane="2" toLane="2" via=":0_6_2" tl="0" linkIndex="8" dir="s" state="O"/>
    <connection from="3o" to="53i" fromLane="0" toLane="0" via=":3_0_0" dir="s" state="M"/>
    <connection from="3o" to="53i" fromLane="1" toLane="1" via=":3_0_1" dir="s" state="M"/>
    <connection from="3o" to="53i" fromLane="2" toLane="2" via=":3_0_2" dir="s" state="M"/>
    <connection from="4i" to="3o" fromLane="0" toLane="0" via=":0_0_0" tl="0" linkIndex="0" dir="s" state="O"/>
    <connection from="4i" to="3o" fromLane="1" toLane="1" via=":0_0_1" tl="0" linkIndex="1" dir="s" state="O"/>
    <connection from="4i" to="3o" fromLane="2" toLane="2" via=":0_0_2" tl="0" linkIndex="2" dir="s" state="O"/>
    <connection from="4o" to="54i" fromLane="0" toLane="0" via=":4_3_0" dir="s" state="M"/>
    <connection from="4o" to="54i" fromLane="1" toLane="1" via=":4_3_1" dir="s" state="M"/>
    <connection from="4o" to="54i" fromLane="2" toLane="2" via=":4_3_2" dir="s" state="M"/>
    <connection from="51i" to="51o" fromLane="2" toLane="2" via=":51_0_0" dir="t" state="M"/>
    <connection from="51o" to="1i" fromLane="0" toLane="0" via=":1_3_0" dir="l" state="M"/>
    <connection from="51o" to="1i" fromLane="1" toLane="1" via=":1_4_0" dir="l" state="M"/>
    <connection from="51o" to="1i" fromLane="2" toLane="2" via=":1_5_0" dir="l" state="M"/>
    <connection from="52i" to="52o" fromLane="2" toLane="2" via=":52_0_0" dir="t" state="M"/>
    <connection from="52o" to="2i" fromLane="0" toLane="0" via=":2_3_0" dir="l" state="M"/>
    <connection from="52o" to="2i" fromLane="1" toLane="1" via=":2_4_0" dir="l" state="M"/>
    <connection from="52o" to="2i" fromLane="2" toLane="2" via=":2_5_0" dir="l" state="M"/>
    <connection from="53i" to="53o" fromLane="2" toLane="2" via=":53_0_0" dir="t" state="M"/>
    <connection from="53o" to="3i" fromLane="0" toLane="0" via=":3_3_0" dir="s" state="M"/>
    <connection from="53o" to="3i" fromLane="1" toLane="1" via=":3_3_1" dir="s" state="M"/>
    <connection from="53o" to="3i" fromLane="2" toLane="2" via=":3_3_2" dir="s" state="M"/>
    <connection from="54i" to="54o" fromLane="2" toLane="2" via=":54_0_0" dir="t" state="M"/>
    <connection from="54o" to="4i" fromLane="0" toLane="0" via=":4_0_0" dir="s" state="M"/>
    <connection from="54o" to="4i" fromLane="1" toLane="1" via=":4_0_1" dir="s" state="M"/>
    <connection from="54o" to="4i" fromLane="2" toLane="2" via=":4_0_2" dir="s" state="M"/>

    <connection from=":0_0" to="3o" fromLane="0" toLane="0" dir="s" state="M"/>
    <connection from=":0_0" to="3o" fromLane="1" toLane="1" dir="s" state="M"/>
    <connection from=":0_0" to="3o" fromLane="2" toLane="2" dir="s" state="M"/>
    <connection from=":0_3" to="1o" fromLane="0" toLane="0" dir="s" state="M"/>
    <connection from=":0_3" to="1o" fromLane="1" toLane="1" dir="s" state="M"/>
    <connection from=":0_3" to="1o" fromLane="2" toLane="2" dir="s" state="M"/>
    <connection from=":0_6" to="4o" fromLane="0" toLane="0" dir="s" state="M"/>
    <connection from=":0_6" to="4o" fromLane="1" toLane="1" dir="s" state="M"/>
    <connection from=":0_6" to="4o" fromLane="2" toLane="2" dir="s" state="M"/>
    <connection from=":0_9" to="2o" fromLane="0" toLane="0" dir="s" state="M"/>
    <connection from=":0_9" to="2o" fromLane="1" toLane="1" dir="s" state="M"/>
    <connection from=":0_9" to="2o" fromLane="2" toLane="2" dir="s" state="M"/>
    <connection from=":0_12" to="4o" fromLane="0" toLane="1" via=":0_15_0" dir="l" state="m"/>
    <connection from=":0_15" to="4o" fromLane="0" toLane="1" dir="l" state="M"/>
    <connection from=":0_13" to="4o" fromLane="0" toLane="2" via=":0_16_0" dir="l" state="m"/>
    <connection from=":0_16" to="4o" fromLane="0" toLane="2" dir="l" state="M"/>
    <connection from=":0_14" to="1o" fromLane="0" toLane="2" via=":0_17_0" dir="t" state="m"/>
    <connection from=":0_17" to="1o" fromLane="0" toLane="2" dir="t" state="M"/>
    <connection from=":1_0" to="51i" fromLane="0" toLane="0" dir="l" state="M"/>
    <connection from=":1_1" to="51i" fromLane="0" toLane="1" dir="l" state="M"/>
    <connection from=":1_2" to="51i" fromLane="0" toLane="2" dir="l" state="M"/>
    <connection from=":1_3" to="1i" fromLane="0" toLane="0" dir="l" state="M"/>
    <connection from=":1_4" to="1i" fromLane="0" toLane="1" dir="l" state="M"/>
    <connection from=":1_5" to="1i" fromLane="0" toLane="2" dir="l" state="M"/>
    <connection from=":2_0" to="52i" fromLane="0" toLane="0" dir="l" state="M"/>
    <connection from=":2_1" to="52i" fromLane="0" toLane="1" dir="l" state="M"/>
    <connection from=":2_2" to="52i" fromLane="0" toLane="2" dir="l" state="M"/>
    <connection from=":2_3" to="2i" fromLane="0" toLane="0" dir="l" state="M"/>
    <connection from=":2_4" to="2i" fromLane="0" toLane="1" dir="l" state="M"/>
    <connection from=":2_5" to="2i" fromLane="0" toLane="2" dir="l" state="M"/>
    <connection from=":3_0" to="53i" fromLane="0" toLane="0" dir="s" state="M"/>
    <connection from=":3_0" to="53i" fromLane="1" toLane="1" dir="s" state="M"/>
    <connection from=":3_0" to="53i" fromLane="2" toLane="2" dir="s" state="M"/>
    <connection from=":3_3" to="3i" fromLane="0" toLane="0" dir="s" state="M"/>
    <connection from=":3_3" to="3i" fromLane="1" toLane="1" dir="s" state="M"/>
    <connection from=":3_3" to="3i" fromLane="2" toLane="2" dir="s" state="M"/>
    <connection from=":4_0" to="4i" fromLane="0" toLane="0" dir="s" state="M"/>
    <connection from=":4_0" to="4i" fromLane="1" toLane="1" dir="s" state="M"/>
    <connection from=":4_0" to="4i" fromLane="2" toLane="2" dir="s" state="M"/>
    <connection from=":4_3" to="54i" fromLane="0" toLane="0" dir="s" state="M"/>
    <connection from=":4_3" to="54i" fromLane="1" toLane="1" dir="s" state="M"/>
    <connection from=":4_3" to="54i" fromLane="2" toLane="2" dir="s" state="M"/>
    <connection from=":51_0" to="51o" fromLane="0" toLane="2" dir="t" state="M"/>
    <connection from=":52_0" to="52o" fromLane="0" toLane="2" dir="t" state="M"/>
    <connection from=":53_0" to="53o" fromLane="0" toLane="2" dir="t" state="M"/>
    <connection from=":54_0" to="54o" fromLane="0" toLane="2" dir="t" state="M"/>

</net>
